24
cesium lead chloride
Pb    0.000000    0.000000    0.000000
Pb    3.918500    0.000000    3.920500
Pb    0.000000    5.583750    0.000000
Pb    3.918500    5.583750    3.920500
Cl    1.665362    0.193198    2.250367
Cl    5.583862    0.193198    1.670133
Cl    6.171638    5.776947    5.590633
Cl    1.665362    5.390552    2.250367
Cl    5.583862    5.390552    1.670133
Cl    2.253137    5.776947    6.170867
Cl    0.007837    8.375625    0.321481
Cl    3.910663    2.791875    4.241981
Cl    3.926337    8.375625    3.599019
Cl   -1.665362   -0.193198   -2.250367
Cl   -2.253138    0.193198    1.670133
Cl   -0.007837    2.791875   -0.321481
Cl    2.253137   -0.193198   -1.670133
Cl    0.007837   -2.791875    0.321481
Cl    2.253137   -0.193198    6.170867
Cl    6.171638   -0.193198    5.590633
Cl    3.926337   -2.791875    3.599019
Cl   -2.253138    5.390552    1.670133
Cl   -1.665362    5.776947   -2.250367
Cl    2.253137    5.776947   -1.670133
